Version 4
SHEET 1 1792 696
WIRE 128 -352 -32 -352
WIRE 160 -352 128 -352
WIRE -32 -320 -32 -352
WIRE -32 -208 -32 -240
WIRE 736 -112 736 -208
WIRE 160 -48 160 -352
WIRE 128 -16 128 -80
WIRE 160 -16 160 -48
WIRE -608 32 -688 32
WIRE -432 32 -608 32
WIRE -160 32 -432 32
WIRE 16 32 -80 32
WIRE 96 32 16 32
WIRE -688 48 -688 32
WIRE 736 48 736 -32
WIRE 736 48 256 48
WIRE 864 48 736 48
WIRE 992 48 864 48
WIRE 736 80 272 80
WIRE 864 80 736 80
WIRE 992 80 864 80
WIRE 16 96 0 96
WIRE 96 96 16 96
WIRE 272 112 272 80
WIRE 272 112 256 112
WIRE -160 128 -448 128
WIRE 0 128 0 96
WIRE 0 128 -80 128
WIRE 736 144 736 80
WIRE -688 160 -688 128
WIRE -448 192 -448 128
WIRE 736 336 736 224
WIRE -320 384 -320 368
WIRE -192 384 -192 368
WIRE -320 480 -320 464
WIRE -192 480 -192 464
FLAG -192 480 0
FLAG -192 368 +Vsupply
FLAG -320 480 0
FLAG -320 368 -Vsupply
FLAG -688 160 0
FLAG -32 -208 0
FLAG 128 -352 Vcm
FLAG -608 32 Vin
FLAG -432 32 Vin
FLAG 128 -80 +Vsupply
FLAG 160 -48 Vcm
FLAG 16 32 IN+
FLAG 736 336 IN-
FLAG 16 96 IN-
FLAG 736 -208 IN+
FLAG 128 176 -Vsupply
FLAG -448 192 0
FLAG 864 48 Vout-
FLAG 864 80 Vout+
SYMBOL voltage -688 32 R0
WINDOW 123 24 124 Left 2
WINDOW 39 0 0 Left 0
SYMATTR Value2 AC 1
SYMATTR InstName V1
SYMATTR Value SINE(0 0.5 5Meg)
SYMBOL voltage -192 368 R0
WINDOW 123 0 0 Left 0
WINDOW 39 0 0 Left 0
SYMATTR InstName V2
SYMATTR Value 5
SYMBOL voltage -320 368 R0
WINDOW 123 0 0 Left 0
WINDOW 39 0 0 Left 0
SYMATTR InstName V3
SYMATTR Value -5
SYMBOL voltage -32 -336 R0
WINDOW 123 0 0 Left 0
WINDOW 39 0 0 Left 0
SYMATTR InstName V4
SYMATTR Value 0.5
SYMBOL res -64 16 R90
WINDOW 0 0 56 VBottom 2
WINDOW 3 32 56 VTop 2
SYMATTR InstName R1
SYMATTR Value {0.5*Res}
SYMBOL res -64 112 R90
WINDOW 0 0 56 VBottom 2
WINDOW 3 32 56 VTop 2
SYMATTR InstName R2
SYMATTR Value {0.5*Res}
SYMBOL res 752 240 R180
WINDOW 0 36 76 Left 2
WINDOW 3 36 40 Left 2
SYMATTR InstName R3
SYMATTR Value {Res}
SYMBOL res 752 -16 R180
WINDOW 0 36 76 Left 2
WINDOW 3 36 40 Left 2
SYMATTR InstName R4
SYMATTR Value {Res}
SYMBOL OpAmps\\ADA4940 128 80 R0
SYMATTR InstName U2
TEXT -376 576 Left 2 !.param Res 1k
TEXT -376 632 Left 2 !.tran 0 5u 0 2n
TEXT -376 680 Left 2 ;.ac dec 20 10K 500Meg
