Version 4
SHEET 1 1048 844
WIRE -112 -96 -368 -96
WIRE 48 -96 -32 -96
WIRE 144 -96 128 -96
WIRE 176 -96 144 -96
WIRE -368 -80 -368 -96
WIRE -112 -80 -112 -96
WIRE -32 -80 -32 -96
WIRE 48 -80 48 -96
WIRE 128 -80 128 -96
WIRE -368 16 -368 0
WIRE -416 128 -416 112
WIRE -304 128 -304 112
WIRE 48 176 48 160
WIRE -112 208 -112 160
WIRE 128 208 128 160
WIRE 128 208 -112 208
WIRE 160 208 128 208
WIRE 176 208 160 208
WIRE -416 224 -416 208
WIRE -304 224 -304 208
WIRE -32 256 -32 160
WIRE -32 256 -208 256
WIRE -32 288 -32 256
WIRE -448 304 -560 304
WIRE -304 304 -368 304
WIRE -208 304 -208 256
WIRE -208 304 -304 304
WIRE -560 320 -560 304
WIRE -32 368 -32 352
WIRE -304 384 -304 304
WIRE -560 416 -560 400
WIRE -304 496 -304 464
FLAG -304 224 0
FLAG -304 112 -V
FLAG -560 416 0
FLAG -368 16 0
FLAG -416 224 0
FLAG -416 112 +V
FLAG -32 368 0
FLAG 160 208 OUT1
FLAG 144 -96 OUT2
FLAG 48 -96 +V
FLAG 48 176 -V
FLAG -304 496 0
SYMBOL voltage -304 112 R0
WINDOW 123 0 0 Left 0
WINDOW 39 0 0 Left 0
SYMATTR InstName V1
SYMATTR Value -5
SYMBOL voltage -560 304 R0
WINDOW 123 0 0 Left 0
WINDOW 39 0 0 Left 0
SYMATTR InstName V2
SYMATTR Value 2.5
SYMBOL voltage -368 -96 R0
WINDOW 123 24 146 Left 2
WINDOW 39 24 125 Left 2
SYMATTR InstName V3
SYMATTR Value SINE(0.5 0.5 5Meg)
SYMBOL Opamps\\LT6350 0 32 R0
SYMATTR InstName U1
SYMBOL cap -48 288 R0
SYMATTR InstName C1
SYMATTR Value 0.1µ
SYMBOL voltage -416 112 R0
WINDOW 123 0 0 Left 0
WINDOW 39 0 0 Left 0
SYMATTR InstName V4
SYMATTR Value 5
SYMBOL res -352 288 R90
WINDOW 0 0 56 VBottom 2
WINDOW 3 32 56 VTop 2
SYMATTR InstName R2
SYMATTR Value 400
SYMBOL res -320 368 R0
SYMATTR InstName R3
SYMATTR Value 100
TEXT 208 344 Left 2 !.tran 0 7u 0 2n
