Version 4
SHEET 1 1524 760
WIRE 1344 -16 1248 -16
WIRE 928 0 608 0
WIRE 1344 0 1344 -16
WIRE 1248 32 1248 -16
WIRE 608 112 608 0
WIRE 688 112 608 112
WIRE 928 144 928 0
WIRE 928 144 832 144
WIRE 1008 144 928 144
WIRE 1104 144 1008 144
WIRE 1248 144 1248 96
WIRE 1248 144 1184 144
WIRE 1456 144 1248 144
WIRE 1520 144 1456 144
WIRE 528 176 368 176
WIRE 560 176 528 176
WIRE 688 176 560 176
WIRE 96 192 96 176
WIRE 224 192 224 176
WIRE 368 192 368 176
WIRE 1248 240 1248 144
WIRE 96 288 96 272
WIRE 224 288 224 272
WIRE 368 304 368 272
WIRE 720 416 672 416
WIRE 928 416 800 416
WIRE 992 416 928 416
WIRE 1104 416 992 416
WIRE 1248 416 1248 304
WIRE 1248 416 1184 416
WIRE 1424 416 1248 416
WIRE 1520 416 1424 416
WIRE 1248 480 1248 416
WIRE 528 576 528 176
WIRE 576 576 528 576
WIRE 672 576 672 416
WIRE 672 576 656 576
WIRE 704 576 672 576
WIRE 928 608 928 416
WIRE 928 608 848 608
WIRE 1248 608 1248 544
WIRE 704 640 576 640
WIRE 576 688 576 640
FLAG 368 304 0
FLAG 1456 144 Vout+
FLAG 1424 416 Vout-
FLAG 560 176 Vin
FLAG 224 288 0
FLAG 224 176 +V
FLAG 96 288 0
FLAG 96 176 -V
FLAG 576 688 0
FLAG 736 528 +V
FLAG 720 64 +V
FLAG 720 224 -V
FLAG 736 688 -V
FLAG 1344 0 0
FLAG 1248 608 0
FLAG 1008 144 OPAMP_+
FLAG 992 416 OPAMP_-
SYMBOL voltage 368 176 R0
WINDOW 123 24 124 Left 2
WINDOW 39 0 0 Left 0
SYMATTR Value2 AC 1
SYMATTR InstName V1
SYMATTR Value SINE(0 1.8V 5Meg)
SYMBOL res 672 560 R90
WINDOW 0 0 56 VBottom 2
WINDOW 3 32 56 VTop 2
SYMATTR InstName R1
SYMATTR Value {Res}
SYMBOL res 816 400 R90
WINDOW 0 0 56 VBottom 2
WINDOW 3 32 56 VTop 2
SYMATTR InstName R2
SYMATTR Value {Res}
SYMBOL voltage 224 176 R0
WINDOW 123 0 0 Left 0
WINDOW 39 0 0 Left 0
SYMATTR InstName V2
SYMATTR Value 5
SYMBOL voltage 96 176 R0
WINDOW 123 0 0 Left 0
WINDOW 39 0 0 Left 0
SYMATTR InstName V3
SYMATTR Value -5
SYMBOL res 1200 400 R90
WINDOW 0 0 56 VBottom 2
WINDOW 3 32 56 VTop 2
SYMATTR InstName R3
SYMATTR Value 47
SYMBOL res 1200 128 R90
WINDOW 0 0 56 VBottom 2
WINDOW 3 32 56 VTop 2
SYMATTR InstName R4
SYMATTR Value 47
SYMBOL cap 1232 32 R0
SYMATTR InstName C1
SYMATTR Value 0.5n
SYMBOL cap 1232 480 R0
SYMATTR InstName C2
SYMATTR Value 0.5n
SYMBOL OpAmps\\LTC6226 720 144 R0
SYMATTR InstName U1
SYMBOL OpAmps\\LTC6226 736 608 R0
SYMATTR InstName U2
SYMBOL cap 1232 240 R0
SYMATTR InstName C3
SYMATTR Value 0.1n
TEXT 40 384 Left 2 !.param Res 1k
TEXT 40 440 Left 2 ;.tran 0 5u 0 2n
TEXT 40 488 Left 2 !.ac dec 20 10K 100Meg
